# generated using pymatgen
data_Mn3Zn(FeO3)2
_symmetry_space_group_name_H-M   C2/m
_cell_length_a   5.44542370
_cell_length_b   9.50099732
_cell_length_c   5.38914750
_cell_angle_alpha   90.00000000
_cell_angle_beta   108.99414795
_cell_angle_gamma   90.00000000
_symmetry_Int_Tables_number   12
_chemical_formula_structural   Mn3Zn(FeO3)2
_chemical_formula_sum   'Mn6 Zn2 Fe4 O12'
_cell_volume   263.63695089
_cell_formula_units_Z   2
loop_
 _symmetry_equiv_pos_site_id
 _symmetry_equiv_pos_as_xyz
  1  'x, y, z'
  2  '-x, -y, -z'
  3  '-x, y, -z'
  4  'x, -y, z'
  5  'x+1/2, y+1/2, z'
  6  '-x+1/2, -y+1/2, -z'
  7  '-x+1/2, y+1/2, -z'
  8  'x+1/2, -y+1/2, z'
loop_
 _atom_site_type_symbol
 _atom_site_label
 _atom_site_symmetry_multiplicity
 _atom_site_fract_x
 _atom_site_fract_y
 _atom_site_fract_z
 _atom_site_occupancy
  Mn  Mn0  4  0.00000000  0.16571808  0.00000000  1
  Mn  Mn1  2  0.00000000  0.50000000  0.00000000  1
  Zn  Zn2  2  0.00000000  0.00000000  0.50000000  1
  Fe  Fe3  4  0.00000000  0.33386596  0.50000000  1
  O  O4  8  0.24815794  0.33458157  0.25744329  1
  O  O5  4  0.24558788  0.00000000  0.25620243  1
