# generated using pymatgen
data_Mn4O5
_symmetry_space_group_name_H-M   C2/m
_cell_length_a   10.46612904
_cell_length_b   2.98767097
_cell_length_c   7.76858281
_cell_angle_alpha   90.00000000
_cell_angle_beta   118.75455705
_cell_angle_gamma   90.00000000
_symmetry_Int_Tables_number   12
_chemical_formula_structural   Mn4O5
_chemical_formula_sum   'Mn8 O10'
_cell_volume   212.96388469
_cell_formula_units_Z   2
loop_
 _symmetry_equiv_pos_site_id
 _symmetry_equiv_pos_as_xyz
  1  'x, y, z'
  2  '-x, -y, -z'
  3  '-x, y, -z'
  4  'x, -y, z'
  5  'x+1/2, y+1/2, z'
  6  '-x+1/2, -y+1/2, -z'
  7  '-x+1/2, y+1/2, -z'
  8  'x+1/2, -y+1/2, z'
loop_
 _atom_site_type_symbol
 _atom_site_label
 _atom_site_symmetry_multiplicity
 _atom_site_fract_x
 _atom_site_fract_y
 _atom_site_fract_z
 _atom_site_occupancy
  Mn  Mn0  4  0.08536734  0.50000000  0.88037794  1
  Mn  Mn1  4  0.22032794  0.00000000  0.30617355  1
  O  O2  4  0.12798111  0.50000000  0.37241272  1
  O  O3  4  0.20686527  0.00000000  0.80675436  1
  O  O4  2  0.00000000  0.00000000  0.00000000  1
