# generated using pymatgen
data_Re3B
_symmetry_space_group_name_H-M   'P 1'
_cell_length_a   2.84803000
_cell_length_b   2.84803000
_cell_length_c   7.35951000
_cell_angle_alpha   90.00000000
_cell_angle_beta   90.00000000
_cell_angle_gamma   120.00000000
_symmetry_Int_Tables_number   1
_chemical_formula_structural   Re3B
_chemical_formula_sum   'Re3 B1'
_cell_volume   51.69739393
_cell_formula_units_Z   1
loop_
 _symmetry_equiv_pos_site_id
 _symmetry_equiv_pos_as_xyz
  1  'x, y, z'
loop_
 _atom_site_type_symbol
 _atom_site_label
 _atom_site_symmetry_multiplicity
 _atom_site_fract_x
 _atom_site_fract_y
 _atom_site_fract_z
 _atom_site_occupancy
  Re  Re1  1  0.00000000  0.00000000  0.00000000  1.0
  Re  Re2  1  0.33333333  0.66666667  0.70186000  1.0
  Re  Re3  1  0.33333333  0.66666667  0.29814000  1.0
  B  B1  1  0.00000000  0.00000000  0.50000000  1.0
