# generated using pymatgen
data_FeIrOsRh
_symmetry_space_group_name_H-M   I-4m2
_cell_length_a   3.79844000
_cell_length_b   3.79844000
_cell_length_c   7.64507697
_cell_angle_alpha   90.00000000
_cell_angle_beta   90.00000000
_cell_angle_gamma   90.00000000
_symmetry_Int_Tables_number   119
_chemical_formula_structural   FeIrOsRh
_chemical_formula_sum   'Fe2 Ir2 Os2 Rh2'
_cell_volume   110.30429005
_cell_formula_units_Z   2
loop_
 _symmetry_equiv_pos_site_id
 _symmetry_equiv_pos_as_xyz
  1  'x, y, z'
  2  'y, -x, -z'
  3  '-x, -y, z'
  4  '-y, x, -z'
  5  '-x, y, z'
  6  '-y, -x, -z'
  7  'x, -y, z'
  8  'y, x, -z'
  9  'x+1/2, y+1/2, z+1/2'
  10  'y+1/2, -x+1/2, -z+1/2'
  11  '-x+1/2, -y+1/2, z+1/2'
  12  '-y+1/2, x+1/2, -z+1/2'
  13  '-x+1/2, y+1/2, z+1/2'
  14  '-y+1/2, -x+1/2, -z+1/2'
  15  'x+1/2, -y+1/2, z+1/2'
  16  'y+1/2, x+1/2, -z+1/2'
loop_
 _atom_site_type_symbol
 _atom_site_label
 _atom_site_symmetry_multiplicity
 _atom_site_fract_x
 _atom_site_fract_y
 _atom_site_fract_z
 _atom_site_occupancy
  Fe  Fe0  2  0.00000000  0.50000000  0.25000000  1.0
  Ir  Ir1  2  0.00000000  0.00000000  0.00000000  1.0
  Os  Os2  2  0.00000000  0.50000000  0.75000000  1.0
  Rh  Rh3  2  0.00000000  0.00000000  0.50000000  1.0
