# generated using pymatgen
data_Hf3Zn3N
_symmetry_space_group_name_H-M   'P 1'
_cell_length_a   8.51719189
_cell_length_b   8.51719189
_cell_length_c   8.51719189
_cell_angle_alpha   60.00000000
_cell_angle_beta   60.00000000
_cell_angle_gamma   60.00000000
_symmetry_Int_Tables_number   1
_chemical_formula_structural   Hf3Zn3N
_chemical_formula_sum   'Hf12 Zn12 N4'
_cell_volume   436.89220660
_cell_formula_units_Z   4
loop_
 _symmetry_equiv_pos_site_id
 _symmetry_equiv_pos_as_xyz
  1  'x, y, z'
loop_
 _atom_site_type_symbol
 _atom_site_label
 _atom_site_symmetry_multiplicity
 _atom_site_fract_x
 _atom_site_fract_y
 _atom_site_fract_z
 _atom_site_occupancy
  Hf  Hf0  1  0.31493556  0.68506444  0.68506444  1
  Hf  Hf1  1  0.68506444  0.31493556  0.31493556  1
  Hf  Hf2  1  0.68506444  0.31493556  0.68506444  1
  Hf  Hf3  1  0.31493556  0.68506444  0.31493556  1
  Hf  Hf4  1  0.68506444  0.68506444  0.31493556  1
  Hf  Hf5  1  0.31493556  0.31493556  0.68506444  1
  Hf  Hf6  1  0.43506444  0.06493556  0.06493556  1
  Hf  Hf7  1  0.06493556  0.43506444  0.43506444  1
  Hf  Hf8  1  0.06493556  0.43506444  0.06493556  1
  Hf  Hf9  1  0.43506444  0.06493556  0.43506444  1
  Hf  Hf10  1  0.06493556  0.06493556  0.43506444  1
  Hf  Hf11  1  0.43506444  0.43506444  0.06493556  1
  Zn  Zn12  1  0.87500000  0.87500000  0.37500000  1
  Zn  Zn13  1  0.87500000  0.37500000  0.87500000  1
  Zn  Zn14  1  0.37500000  0.87500000  0.87500000  1
  Zn  Zn15  1  0.87500000  0.87500000  0.87500000  1
  Zn  Zn16  1  0.08256637  0.08256637  0.75230089  1
  Zn  Zn17  1  0.08256637  0.75230089  0.08256637  1
  Zn  Zn18  1  0.75230089  0.08256637  0.08256637  1
  Zn  Zn19  1  0.08256637  0.08256637  0.08256637  1
  Zn  Zn20  1  0.66743363  0.66743363  0.99769911  1
  Zn  Zn21  1  0.66743363  0.99769911  0.66743363  1
  Zn  Zn22  1  0.99769911  0.66743363  0.66743363  1
  Zn  Zn23  1  0.66743363  0.66743363  0.66743363  1
  N  N24  1  0.37500000  0.37500000  0.87500000  1
  N  N25  1  0.37500000  0.87500000  0.37500000  1
  N  N26  1  0.87500000  0.37500000  0.37500000  1
  N  N27  1  0.37500000  0.37500000  0.37500000  1
