# generated using pymatgen
data_Hf6Zn23N
_symmetry_space_group_name_H-M   'P 1'
_cell_length_a   8.66031710
_cell_length_b   8.66031710
_cell_length_c   8.66031710
_cell_angle_alpha   60.00000000
_cell_angle_beta   60.00000000
_cell_angle_gamma   60.00000000
_symmetry_Int_Tables_number   1
_chemical_formula_structural   Hf6Zn23N
_chemical_formula_sum   'Hf6 Zn23 N1'
_cell_volume   459.28935980
_cell_formula_units_Z   1
loop_
 _symmetry_equiv_pos_site_id
 _symmetry_equiv_pos_as_xyz
  1  'x, y, z'
loop_
 _atom_site_type_symbol
 _atom_site_label
 _atom_site_symmetry_multiplicity
 _atom_site_fract_x
 _atom_site_fract_y
 _atom_site_fract_z
 _atom_site_occupancy
  Hf  Hf0  1  0.31381585  0.68618415  0.68618415  1
  Hf  Hf1  1  0.31381585  0.68618415  0.31381585  1
  Hf  Hf2  1  0.31381585  0.31381585  0.68618415  1
  Hf  Hf3  1  0.68618415  0.31381585  0.31381585  1
  Hf  Hf4  1  0.68618415  0.31381585  0.68618415  1
  Hf  Hf5  1  0.68618415  0.68618415  0.31381585  1
  Zn  Zn6  1  0.99686471  0.66771176  0.66771176  1
  Zn  Zn7  1  0.66771176  0.99686471  0.66771176  1
  Zn  Zn8  1  0.66771176  0.66771176  0.99686471  1
  Zn  Zn9  1  0.66771176  0.66771176  0.66771176  1
  Zn  Zn10  1  0.00313529  0.33228824  0.33228824  1
  Zn  Zn11  1  0.33228824  0.00313529  0.33228824  1
  Zn  Zn12  1  0.33228824  0.33228824  0.00313529  1
  Zn  Zn13  1  0.33228824  0.33228824  0.33228824  1
  Zn  Zn14  1  0.35724024  0.88091992  0.88091992  1
  Zn  Zn15  1  0.88091992  0.35724024  0.88091992  1
  Zn  Zn16  1  0.88091992  0.88091992  0.35724024  1
  Zn  Zn17  1  0.88091992  0.88091992  0.88091992  1
  Zn  Zn18  1  0.64275976  0.11908008  0.11908008  1
  Zn  Zn19  1  0.11908008  0.64275976  0.11908008  1
  Zn  Zn20  1  0.11908008  0.11908008  0.64275976  1
  Zn  Zn21  1  0.11908008  0.11908008  0.11908008  1
  Zn  Zn22  1  0.00000000  0.50000000  0.50000000  1
  Zn  Zn23  1  0.00000000  0.50000000  0.00000000  1
  Zn  Zn24  1  0.00000000  0.00000000  0.50000000  1
  Zn  Zn25  1  0.50000000  0.00000000  0.00000000  1
  Zn  Zn26  1  0.50000000  0.00000000  0.50000000  1
  Zn  Zn27  1  0.50000000  0.50000000  0.00000000  1
  Zn  Zn28  1  0.00000000  0.00000000  0.00000000  1
  N  N29  1  0.50000000  0.50000000  0.50000000  1
